scratch/LECO_BZ0109_OpenDSS/lines.dss
! OpenDSS Pole-to-Pole Line Segments for BZ0109

New Line.L_TX_TO_AR48N Bus1=TX_LV_BUS.1.2.3.0 Bus2=AR48N.1.2.3.0 Linecode=ABC_70 Length=0.010 Units=km Phases=3
New Line.L_AR48U_P_L_AR48U_P_G Bus1=AR48U_P_L.1.2.3.0 Bus2=AR48U_P_G.1.2.3.0 Linecode=ABC_70 Length=0.0400 Units=km Phases=3
New Line.L_AR48U_P_G3_AR48U_P_G Bus1=AR48U_P_G3.1.2.3.0 Bus2=AR48U_P_G.1.2.3.0 Linecode=ABC_70 Length=0.0400 Units=km Phases=3
New Line.L_AR48U_P_G__4_AR48U_P_G Bus1=AR48U_P_G__4.1.2.3.0 Bus2=AR48U_P_G.1.2.3.0 Linecode=ABC_70 Length=0.0400 Units=km Phases=3
New Line.L_AR48N4_AR48N Bus1=AR48N4.1.2.3.0 Bus2=AR48N.1.2.3.0 Linecode=ABC_70 Length=0.0400 Units=km Phases=3
New Line.L_AR48M__B_AR48N Bus1=AR48M__B.1.2.3.0 Bus2=AR48N.1.2.3.0 Linecode=ABC_70 Length=0.0400 Units=km Phases=3
New Line.L_AR48N_AR48T Bus1=AR48N.1.2.3.0 Bus2=AR48T.1.2.3.0 Linecode=ABC_70 Length=0.0400 Units=km Phases=3
New Line.L_AR48U_F2_AR48U_F Bus1=AR48U_F2.1.2.3.0 Bus2=AR48U_F.1.2.3.0 Linecode=ABC_70 Length=0.0400 Units=km Phases=3
New Line.L_AR48U_G_AR48U_F Bus1=AR48U_G.1.2.3.0 Bus2=AR48U_F.1.2.3.0 Linecode=ABC_70 Length=0.0400 Units=km Phases=3
New Line.L_AR48U_D_AR48U_B Bus1=AR48U_D.1.2.3.0 Bus2=AR48U_B.1.2.3.0 Linecode=ABC_70 Length=0.0400 Units=km Phases=3
New Line.L_AR48Q4_2_AR48Q4 Bus1=AR48Q4_2.1.2.3.0 Bus2=AR48Q4.1.2.3.0 Linecode=ABC_70 Length=0.0400 Units=km Phases=3
New Line.L_AR48Q4_AR48T Bus1=AR48Q4.1.2.3.0 Bus2=AR48T.1.2.3.0 Linecode=ABC_70 Length=0.0400 Units=km Phases=3
New Line.L_AR48U_G_C_AR48U_G Bus1=AR48U_G_C.1.2.3.0 Bus2=AR48U_G.1.2.3.0 Linecode=ABC_70 Length=0.0400 Units=km Phases=3
New Line.L_AR48Y_AR48W Bus1=AR48Y.1.2.3.0 Bus2=AR48W.1.2.3.0 Linecode=ABC_70 Length=0.0400 Units=km Phases=3
New Line.L_AR48U_D_D_AR48U_D Bus1=AR48U_D_D.1.2.3.0 Bus2=AR48U_D.1.2.3.0 Linecode=ABC_70 Length=0.0400 Units=km Phases=3
New Line.L_AR48U_B_AR48U Bus1=AR48U_B.1.2.3.0 Bus2=AR48U.1.2.3.0 Linecode=ABC_70 Length=0.0400 Units=km Phases=3
New Line.L_AR48U_B_B_AR48U_B Bus1=AR48U_B_B.1.2.3.0 Bus2=AR48U_B.1.2.3.0 Linecode=ABC_70 Length=0.0400 Units=km Phases=3
New Line.L_AR48W_C_AR48W Bus1=AR48W_C.1.2.3.0 Bus2=AR48W.1.2.3.0 Linecode=ABC_70 Length=0.0400 Units=km Phases=3
New Line.L_AR48U_F_AR48U_D Bus1=AR48U_F.1.2.3.0 Bus2=AR48U_D.1.2.3.0 Linecode=ABC_70 Length=0.0400 Units=km Phases=3
New Line.L_AR48Q7_AR48Q4 Bus1=AR48Q7.1.2.3.0 Bus2=AR48Q4.1.2.3.0 Linecode=ABC_70 Length=0.0400 Units=km Phases=3
New Line.L_AR48U_P_E_AR48U_P_B Bus1=AR48U_P_E.1.2.3.0 Bus2=AR48U_P_B.1.2.3.0 Linecode=ABC_70 Length=0.0400 Units=km Phases=3
New Line.L_AR48U_P_G_AR48U_P_E Bus1=AR48U_P_G.1.2.3.0 Bus2=AR48U_P_E.1.2.3.0 Linecode=ABC_70 Length=0.0400 Units=km Phases=3
New Line.L_AR48U_P_E_C_AR48U_P_E Bus1=AR48U_P_E_C.1.2.3.0 Bus2=AR48U_P_E.1.2.3.0 Linecode=ABC_70 Length=0.0400 Units=km Phases=3
New Line.L_AR48U_R1_AR48U_R Bus1=AR48U_R1.1.2.3.0 Bus2=AR48U_R.1.2.3.0 Linecode=ABC_70 Length=0.0400 Units=km Phases=3
New Line.L_AR48U_V_AR48U_R Bus1=AR48U_V.1.2.3.0 Bus2=AR48U_R.1.2.3.0 Linecode=ABC_70 Length=0.0400 Units=km Phases=3
New Line.L_AR48U_R_AR48U_Q Bus1=AR48U_R.1.2.3.0 Bus2=AR48U_Q.1.2.3.0 Linecode=ABC_70 Length=0.0400 Units=km Phases=3
New Line.L_AR48U_P_B_AR48U_P Bus1=AR48U_P_B.1.2.3.0 Bus2=AR48U_P.1.2.3.0 Linecode=ABC_70 Length=0.0400 Units=km Phases=3
New Line.L_AR48U_Q_AR48U_P Bus1=AR48U_Q.1.2.3.0 Bus2=AR48U_P.1.2.3.0 Linecode=ABC_70 Length=0.0400 Units=km Phases=3
New Line.L_AR48W_AR48T Bus1=AR48W.1.2.3.0 Bus2=AR48T.1.2.3.0 Linecode=ABC_70 Length=0.0400 Units=km Phases=3
New Line.L_AR48V_AR48T Bus1=AR48V.1.2.3.0 Bus2=AR48T.1.2.3.0 Linecode=ABC_70 Length=0.0400 Units=km Phases=3
New Line.L_AR48U_AR48T Bus1=AR48U.1.2.3.0 Bus2=AR48T.1.2.3.0 Linecode=ABC_70 Length=0.0400 Units=km Phases=3
New Line.L_AR48U_N_AR48U_M Bus1=AR48U_N.1.2.3.0 Bus2=AR48U_M.1.2.3.0 Linecode=ABC_70 Length=0.0400 Units=km Phases=3
New Line.L_AR48U_P_AR48U_N Bus1=AR48U_P.1.2.3.0 Bus2=AR48U_N.1.2.3.0 Linecode=ABC_70 Length=0.0400 Units=km Phases=3
New Line.L_AR48U_M_C_AR48U_M Bus1=AR48U_M_C.1.2.3.0 Bus2=AR48U_M.1.2.3.0 Linecode=ABC_70 Length=0.0400 Units=km Phases=3
New Line.L_AR48U_M_AR48U_L Bus1=AR48U_M.1.2.3.0 Bus2=AR48U_L.1.2.3.0 Linecode=ABC_70 Length=0.0400 Units=km Phases=3
New Line.L_AR48Q_AR48T Bus1=AR48Q.1.2.3.0 Bus2=AR48T.1.2.3.0 Linecode=ABC_70 Length=0.0400 Units=km Phases=3
New Line.L_AR48M__E3_AR48T Bus1=AR48M__E3.1.2.3.0 Bus2=AR48T.1.2.3.0 Linecode=ABC_70 Length=0.0400 Units=km Phases=3
New Line.L_AR48M__B4_AR48M__B Bus1=AR48M__B4.1.2.3.0 Bus2=AR48M__B.1.2.3.0 Linecode=ABC_70 Length=0.0400 Units=km Phases=3
New Line.L_AR48M__E6_AR48M__E3 Bus1=AR48M__E6.1.2.3.0 Bus2=AR48M__E3.1.2.3.0 Linecode=ABC_70 Length=0.0400 Units=km Phases=3
New Line.L_AR48M__H_AR48M__E Bus1=AR48M__H.1.2.3.0 Bus2=AR48M__E.1.2.3.0 Linecode=ABC_70 Length=0.0400 Units=km Phases=3
New Line.L_AR48M__E3A_AR48M__E3 Bus1=AR48M__E3A.1.2.3.0 Bus2=AR48M__E3.1.2.3.0 Linecode=ABC_70 Length=0.0400 Units=km Phases=3
New Line.L_AR48U_D_D_B_AR48U_D Bus1=AR48U_D_D_B.1.2.3.0 Bus2=AR48U_D.1.2.3.0 Linecode=ABC_70 Length=0.0400 Units=km Phases=3
New Line.L_AR48U_P_B_1B_AR48U_P_B_1 Bus1=AR48U_P_B_1B.1.2.3.0 Bus2=AR48U_P_B_1.1.2.3.0 Linecode=ABC_70 Length=0.0400 Units=km Phases=3
New Line.L_AR48U_W_AR48U_V Bus1=AR48U_W.1.2.3.0 Bus2=AR48U_V.1.2.3.0 Linecode=ABC_70 Length=0.0400 Units=km Phases=3
New Line.L_AR48U_Y_AR48U_W Bus1=AR48U_Y.1.2.3.0 Bus2=AR48U_W.1.2.3.0 Linecode=ABC_70 Length=0.0400 Units=km Phases=3
New Line.L_AR48U_V3_AR48U_V Bus1=AR48U_V3.1.2.3.0 Bus2=AR48U_V.1.2.3.0 Linecode=ABC_70 Length=0.0400 Units=km Phases=3
New Line.L_AR48U_W3_AR48U_W Bus1=AR48U_W3.1.2.3.0 Bus2=AR48U_W.1.2.3.0 Linecode=ABC_70 Length=0.0400 Units=km Phases=3
New Line.L_AR48U_W3A_AR48U_W3 Bus1=AR48U_W3A.1.2.3.0 Bus2=AR48U_W3.1.2.3.0 Linecode=ABC_70 Length=0.0400 Units=km Phases=3
New Line.L_AR48U_W6_AR48U_W3 Bus1=AR48U_W6.1.2.3.0 Bus2=AR48U_W3.1.2.3.0 Linecode=ABC_70 Length=0.0400 Units=km Phases=3
New Line.L_AR48U_P_B_A_AR48U_P_B Bus1=AR48U_P_B_A.1.2.3.0 Bus2=AR48U_P_B.1.2.3.0 Linecode=ABC_70 Length=0.0400 Units=km Phases=3
New Line.L_AR48U_Q2_AR48U_Q Bus1=AR48U_Q2.1.2.3.0 Bus2=AR48U_Q.1.2.3.0 Linecode=ABC_70 Length=0.0400 Units=km Phases=3
New Line.L_AR48U_N3_AR48U_N Bus1=AR48U_N3.1.2.3.0 Bus2=AR48U_N.1.2.3.0 Linecode=ABC_70 Length=0.0400 Units=km Phases=3
New Line.L_AR48U_L_AR48U_G Bus1=AR48U_L.1.2.3.0 Bus2=AR48U_G.1.2.3.0 Linecode=ABC_70 Length=0.0400 Units=km Phases=3
New Line.L_AR48U_L_C_AR48U_L Bus1=AR48U_L_C.1.2.3.0 Bus2=AR48U_L.1.2.3.0 Linecode=ABC_70 Length=0.0400 Units=km Phases=3
New Line.L_AR48U_P_B_A_AR48T Bus1=AR48U_P_B_A.1.2.3.0 Bus2=AR48T.1.2.3.0 Linecode=ABC_70 Length=0.0400 Units=km Phases=3