scratch/LECO_BZ0109_OpenDSS/loads.dss
! OpenDSS Customer Load Definitions at Distributor Poles (BZ0109)

New Load.Load_AR48N_Ph1 Bus1=AR48N.1.0 Phases=1 kV=0.23 kW=3.16 PF=0.95 Model=1 Vminpu=0.85 
New Load.Load_AR48Q_Ph2 Bus1=AR48Q.2.0 Phases=1 kV=0.23 kW=1.75 PF=0.95 Model=1 Vminpu=0.85 
New Load.Load_AR48V_Ph3 Bus1=AR48V.3.0 Phases=1 kV=0.23 kW=9.51 PF=0.95 Model=1 Vminpu=0.85 
New Load.Load_AR48R_Ph1 Bus1=AR48R.1.0 Phases=1 kV=0.23 kW=1.55 PF=0.95 Model=1 Vminpu=0.85 
New Load.Load_AR48P_Ph2 Bus1=AR48P.2.0 Phases=1 kV=0.23 kW=0.50 PF=0.95 Model=1 Vminpu=0.85 
New Load.Load_AR48X_Ph1 Bus1=AR48X.1.0 Phases=1 kV=0.23 kW=0.50 PF=0.95 Model=1 Vminpu=0.85 
New Load.Load_AR48W_Ph2 Bus1=AR48W.2.0 Phases=1 kV=0.23 kW=1.40 PF=0.95 Model=1 Vminpu=0.85 
New Load.Load_AR48S_Ph3 Bus1=AR48S.3.0 Phases=1 kV=0.23 kW=0.50 PF=0.95 Model=1 Vminpu=0.85 
New Load.Load_AR48U_Ph1 Bus1=AR48U.1.0 Phases=1 kV=0.23 kW=0.70 PF=0.95 Model=1 Vminpu=0.85 
New Load.Load_AR48T_Ph2 Bus1=AR48T.2.0 Phases=1 kV=0.23 kW=6.33 PF=0.95 Model=1 Vminpu=0.85 
New Load.Load_AR48M_Ph3 Bus1=AR48M.3.0 Phases=1 kV=0.23 kW=1.12 PF=0.95 Model=1 Vminpu=0.85 
New Load.Load_AR48U_X_Ph1 Bus1=AR48U_X.1.0 Phases=1 kV=0.23 kW=0.50 PF=0.95 Model=1 Vminpu=0.85 
New Load.Load_AR48U_Y_Ph2 Bus1=AR48U_Y.2.0 Phases=1 kV=0.23 kW=0.85 PF=0.95 Model=1 Vminpu=0.85 
New Load.Load_AR48U_P_G_Ph3 Bus1=AR48U_P_G.3.0 Phases=1 kV=0.23 kW=1.00 PF=0.95 Model=1 Vminpu=0.85 
New Load.Load_AR48U_P_H_Ph1 Bus1=AR48U_P_H.1.0 Phases=1 kV=0.23 kW=0.50 PF=0.95 Model=1 Vminpu=0.85 
New Load.Load_AR48U_P_J_Ph2 Bus1=AR48U_P_J.2.0 Phases=1 kV=0.23 kW=0.50 PF=0.95 Model=1 Vminpu=0.85 
New Load.Load_AR48U_P_K_Ph3 Bus1=AR48U_P_K.3.0 Phases=1 kV=0.23 kW=0.50 PF=0.95 Model=1 Vminpu=0.85 
New Load.Load_AR48U_P_L_Ph1 Bus1=AR48U_P_L.1.0 Phases=1 kV=0.23 kW=0.64 PF=0.95 Model=1 Vminpu=0.85 
New Load.Load_AR48U_P_G1_Ph2 Bus1=AR48U_P_G1.2.0 Phases=1 kV=0.23 kW=0.50 PF=0.95 Model=1 Vminpu=0.85 
New Load.Load_AR48U_P_G3_Ph1 Bus1=AR48U_P_G3.1.0 Phases=1 kV=0.23 kW=0.52 PF=0.95 Model=1 Vminpu=0.85 
New Load.Load_AR48U_P_G__2_Ph3 Bus1=AR48U_P_G__2.3.0 Phases=1 kV=0.23 kW=0.50 PF=0.95 Model=1 Vminpu=0.85 
New Load.Load_AR48U_P_G__3_Ph1 Bus1=AR48U_P_G__3.1.0 Phases=1 kV=0.23 kW=0.50 PF=0.95 Model=1 Vminpu=0.85 
New Load.Load_AR48U_P_G__4_Ph2 Bus1=AR48U_P_G__4.2.0 Phases=1 kV=0.23 kW=0.50 PF=0.95 Model=1 Vminpu=0.85 
New Load.Load_AR48N_1_Ph3 Bus1=AR48N_1.3.0 Phases=1 kV=0.23 kW=0.55 PF=0.95 Model=1 Vminpu=0.85 
New Load.Load_AR48M__B3_Ph1 Bus1=AR48M__B3.1.0 Phases=1 kV=0.23 kW=0.98 PF=0.95 Model=1 Vminpu=0.85 
New Load.Load_AR48M__B2_Ph2 Bus1=AR48M__B2.2.0 Phases=1 kV=0.23 kW=0.50 PF=0.95 Model=1 Vminpu=0.85 
New Load.Load_AR48N1_Ph1 Bus1=AR48N1.1.0 Phases=1 kV=0.23 kW=0.86 PF=0.95 Model=1 Vminpu=0.85 
New Load.Load_AR48U_J_Ph2 Bus1=AR48U_J.2.0 Phases=1 kV=0.23 kW=0.94 PF=0.95 Model=1 Vminpu=0.85 
New Load.Load_AR48Q5_Ph3 Bus1=AR48Q5.3.0 Phases=1 kV=0.23 kW=0.50 PF=0.95 Model=1 Vminpu=0.85 
New Load.Load_AR48U_A_Ph1 Bus1=AR48U_A.1.0 Phases=1 kV=0.23 kW=0.50 PF=0.95 Model=1 Vminpu=0.85 
New Load.Load_AR48Q6_Ph2 Bus1=AR48Q6.2.0 Phases=1 kV=0.23 kW=0.50 PF=0.95 Model=1 Vminpu=0.85 
New Load.Load_AR48U_D_B_Ph3 Bus1=AR48U_D_B.3.0 Phases=1 kV=0.23 kW=0.50 PF=0.95 Model=1 Vminpu=0.85 
New Load.Load_AR48Q1_Ph1 Bus1=AR48Q1.1.0 Phases=1 kV=0.23 kW=1.96 PF=0.95 Model=1 Vminpu=0.85 
New Load.Load_AR48U_B_B_Ph3 Bus1=AR48U_B_B.3.0 Phases=1 kV=0.23 kW=0.50 PF=0.95 Model=1 Vminpu=0.85 
New Load.Load_AR48M__E6_Ph1 Bus1=AR48M__E6.1.0 Phases=1 kV=0.23 kW=0.50 PF=0.95 Model=1 Vminpu=0.85 
New Load.Load_AR48N2_Ph2 Bus1=AR48N2.2.0 Phases=1 kV=0.23 kW=0.88 PF=0.95 Model=1 Vminpu=0.85 
New Load.Load_AR48M__E5_Ph3 Bus1=AR48M__E5.3.0 Phases=1 kV=0.23 kW=0.50 PF=0.95 Model=1 Vminpu=0.85 
New Load.Load_AR48Q4_2_Ph1 Bus1=AR48Q4_2.1.0 Phases=1 kV=0.23 kW=0.50 PF=0.95 Model=1 Vminpu=0.85 
New Load.Load_AR48N3_Ph2 Bus1=AR48N3.2.0 Phases=1 kV=0.23 kW=0.50 PF=0.95 Model=1 Vminpu=0.85 
New Load.Load_AR48M__E3A_Ph3 Bus1=AR48M__E3A.3.0 Phases=1 kV=0.23 kW=1.36 PF=0.95 Model=1 Vminpu=0.85 
New Load.Load_AR48U_G_Ph1 Bus1=AR48U_G.1.0 Phases=1 kV=0.23 kW=0.92 PF=0.95 Model=1 Vminpu=0.85 
New Load.Load_AR48M__E4_Ph2 Bus1=AR48M__E4.2.0 Phases=1 kV=0.23 kW=3.36 PF=0.95 Model=1 Vminpu=0.85 
New Load.Load_AR48Q7_Ph3 Bus1=AR48Q7.3.0 Phases=1 kV=0.23 kW=0.52 PF=0.95 Model=1 Vminpu=0.85 
New Load.Load_AR48U_G_B_Ph1 Bus1=AR48U_G_B.1.0 Phases=1 kV=0.23 kW=0.56 PF=0.95 Model=1 Vminpu=0.85 
New Load.Load_AR48Q2_Ph3 Bus1=AR48Q2.3.0 Phases=1 kV=0.23 kW=0.50 PF=0.95 Model=1 Vminpu=0.85 
New Load.Load_AR48U_D_C_Ph1 Bus1=AR48U_D_C.1.0 Phases=1 kV=0.23 kW=0.50 PF=0.95 Model=1 Vminpu=0.85 
New Load.Load_AR48U_J_1_Ph2 Bus1=AR48U_J_1.2.0 Phases=1 kV=0.23 kW=0.62 PF=0.95 Model=1 Vminpu=0.85 
New Load.Load_AR48U_D_Ph1 Bus1=AR48U_D.1.0 Phases=1 kV=0.23 kW=0.50 PF=0.95 Model=1 Vminpu=0.85 
New Load.Load_AR48U_F2_Ph2 Bus1=AR48U_F2.2.0 Phases=1 kV=0.23 kW=0.63 PF=0.95 Model=1 Vminpu=0.85 
New Load.Load_AR48W_C_Ph3 Bus1=AR48W_C.3.0 Phases=1 kV=0.23 kW=3.71 PF=0.95 Model=1 Vminpu=0.85 
New Load.Load_AR48U_D_A_Ph1 Bus1=AR48U_D_A.1.0 Phases=1 kV=0.23 kW=0.50 PF=0.95 Model=1 Vminpu=0.85 
New Load.Load_AR48N4_Ph2 Bus1=AR48N4.2.0 Phases=1 kV=0.23 kW=0.62 PF=0.95 Model=1 Vminpu=0.85 
New Load.Load_AR48Q4_Ph3 Bus1=AR48Q4.3.0 Phases=1 kV=0.23 kW=0.50 PF=0.95 Model=1 Vminpu=0.85 
New Load.Load_AR48U_E_Ph1 Bus1=AR48U_E.1.0 Phases=1 kV=0.23 kW=0.50 PF=0.95 Model=1 Vminpu=0.85 
New Load.Load_AR48U_D_D_Ph2 Bus1=AR48U_D_D.2.0 Phases=1 kV=0.23 kW=0.81 PF=0.95 Model=1 Vminpu=0.85 
New Load.Load_AR48U_G_C_Ph3 Bus1=AR48U_G_C.3.0 Phases=1 kV=0.23 kW=0.58 PF=0.95 Model=1 Vminpu=0.85 
New Load.Load_AR48U_C_Ph1 Bus1=AR48U_C.1.0 Phases=1 kV=0.23 kW=0.61 PF=0.95 Model=1 Vminpu=0.85 
New Load.Load_AR48U_G_A_Ph2 Bus1=AR48U_G_A.2.0 Phases=1 kV=0.23 kW=0.50 PF=0.95 Model=1 Vminpu=0.85 
New Load.Load_AR48U_B_A_Ph3 Bus1=AR48U_B_A.3.0 Phases=1 kV=0.23 kW=0.82 PF=0.95 Model=1 Vminpu=0.85 
New Load.Load_AR48U_F_Ph2 Bus1=AR48U_F.2.0 Phases=1 kV=0.23 kW=0.50 PF=0.95 Model=1 Vminpu=0.85 
New Load.Load_AR48U_H_Ph1 Bus1=AR48U_H.1.0 Phases=1 kV=0.23 kW=1.32 PF=0.95 Model=1 Vminpu=0.85 
New Load.Load_AR48Q3_Ph2 Bus1=AR48Q3.2.0 Phases=1 kV=0.23 kW=0.50 PF=0.95 Model=1 Vminpu=0.85 
New Load.Load_AR48S_1_Ph1 Bus1=AR48S_1.1.0 Phases=1 kV=0.23 kW=1.26 PF=0.95 Model=1 Vminpu=0.85 
New Load.Load_AR48U_P_D_Ph2 Bus1=AR48U_P_D.2.0 Phases=1 kV=0.23 kW=0.50 PF=0.95 Model=1 Vminpu=0.85 
New Load.Load_AR48U_P_E_Ph3 Bus1=AR48U_P_E.3.0 Phases=1 kV=0.23 kW=0.50 PF=0.95 Model=1 Vminpu=0.85 
New Load.Load_AR48U_P_B_A_Ph1 Bus1=AR48U_P_B_A.1.0 Phases=1 kV=0.23 kW=4.96 PF=0.95 Model=1 Vminpu=0.85 
New Load.Load_AR48U_P_E_A_Ph2 Bus1=AR48U_P_E_A.2.0 Phases=1 kV=0.23 kW=0.50 PF=0.95 Model=1 Vminpu=0.85 
New Load.Load_AR48U_P_E_B_Ph3 Bus1=AR48U_P_E_B.3.0 Phases=1 kV=0.23 kW=0.50 PF=0.95 Model=1 Vminpu=0.85 
New Load.Load_AR48U_P_E_C_Ph1 Bus1=AR48U_P_E_C.1.0 Phases=1 kV=0.23 kW=1.08 PF=0.95 Model=1 Vminpu=0.85 
New Load.Load_AR48U_Q2_Ph3 Bus1=AR48U_Q2.3.0 Phases=1 kV=0.23 kW=0.50 PF=0.95 Model=1 Vminpu=0.85 
New Load.Load_AR48U_R1_Ph1 Bus1=AR48U_R1.1.0 Phases=1 kV=0.23 kW=0.50 PF=0.95 Model=1 Vminpu=0.85 
New Load.Load_AR48U_P_Ph2 Bus1=AR48U_P.2.0 Phases=1 kV=0.23 kW=1.29 PF=0.95 Model=1 Vminpu=0.85 
New Load.Load_AR48U_N2_Ph3 Bus1=AR48U_N2.3.0 Phases=1 kV=0.23 kW=0.50 PF=0.95 Model=1 Vminpu=0.85 
New Load.Load_AR48U_Q_Ph1 Bus1=AR48U_Q.1.0 Phases=1 kV=0.23 kW=0.76 PF=0.95 Model=1 Vminpu=0.85 
New Load.Load_AR48U_R_Ph2 Bus1=AR48U_R.2.0 Phases=1 kV=0.23 kW=0.95 PF=0.95 Model=1 Vminpu=0.85 
New Load.Load_AR48U_S_Ph3 Bus1=AR48U_S.3.0 Phases=1 kV=0.23 kW=0.50 PF=0.95 Model=1 Vminpu=0.85 
New Load.Load_AR48U_T_Ph1 Bus1=AR48U_T.1.0 Phases=1 kV=0.23 kW=0.50 PF=0.95 Model=1 Vminpu=0.85 
New Load.Load_AR48U_U_Ph2 Bus1=AR48U_U.2.0 Phases=1 kV=0.23 kW=0.50 PF=0.95 Model=1 Vminpu=0.85 
New Load.Load_AR48U_P_A_Ph3 Bus1=AR48U_P_A.3.0 Phases=1 kV=0.23 kW=1.12 PF=0.95 Model=1 Vminpu=0.85 
New Load.Load_AR48U_P_B_Ph1 Bus1=AR48U_P_B.1.0 Phases=1 kV=0.23 kW=0.67 PF=0.95 Model=1 Vminpu=0.85 
New Load.Load_AR48U_P_C_Ph2 Bus1=AR48U_P_C.2.0 Phases=1 kV=0.23 kW=0.50 PF=0.95 Model=1 Vminpu=0.85 
New Load.Load_AR48U_N_Ph3 Bus1=AR48U_N.3.0 Phases=1 kV=0.23 kW=0.60 PF=0.95 Model=1 Vminpu=0.85 
New Load.Load_AR48U_L_A_Ph1 Bus1=AR48U_L_A.1.0 Phases=1 kV=0.23 kW=1.06 PF=0.95 Model=1 Vminpu=0.85 
New Load.Load_AR48U_L_B_Ph2 Bus1=AR48U_L_B.2.0 Phases=1 kV=0.23 kW=0.67 PF=0.95 Model=1 Vminpu=0.85 
New Load.Load_AR48U_L_2_Ph3 Bus1=AR48U_L_2.3.0 Phases=1 kV=0.23 kW=0.50 PF=0.95 Model=1 Vminpu=0.85 
New Load.Load_AR48U_M_B_Ph1 Bus1=AR48U_M_B.1.0 Phases=1 kV=0.23 kW=0.56 PF=0.95 Model=1 Vminpu=0.85 
New Load.Load_AR48U_M_Ph2 Bus1=AR48U_M.2.0 Phases=1 kV=0.23 kW=0.91 PF=0.95 Model=1 Vminpu=0.85 
New Load.Load_AR48U_N1_Ph1 Bus1=AR48U_N1.1.0 Phases=1 kV=0.23 kW=0.50 PF=0.95 Model=1 Vminpu=0.85 
New Load.Load_AR48U_M_A_Ph2 Bus1=AR48U_M_A.2.0 Phases=1 kV=0.23 kW=0.68 PF=0.95 Model=1 Vminpu=0.85 
New Load.Load_AR48U_K_Ph3 Bus1=AR48U_K.3.0 Phases=1 kV=0.23 kW=0.84 PF=0.95 Model=1 Vminpu=0.85 
New Load.Load_AR48U_M_C_Ph1 Bus1=AR48U_M_C.1.0 Phases=1 kV=0.23 kW=0.50 PF=0.95 Model=1 Vminpu=0.85 
New Load.Load_AR48M__A_Ph3 Bus1=AR48M__A.3.0 Phases=1 kV=0.23 kW=0.50 PF=0.95 Model=1 Vminpu=0.85 
New Load.Load_AR48M__B1_Ph1 Bus1=AR48M__B1.1.0 Phases=1 kV=0.23 kW=1.66 PF=0.95 Model=1 Vminpu=0.85 
New Load.Load_AR48M__B_Ph3 Bus1=AR48M__B.3.0 Phases=1 kV=0.23 kW=1.43 PF=0.95 Model=1 Vminpu=0.85 
New Load.Load_AR48M__E3_Ph2 Bus1=AR48M__E3.2.0 Phases=1 kV=0.23 kW=0.50 PF=0.95 Model=1 Vminpu=0.85 
New Load.Load_AR48M__E2_Ph1 Bus1=AR48M__E2.1.0 Phases=1 kV=0.23 kW=0.50 PF=0.95 Model=1 Vminpu=0.85 
New Load.Load_AR48M__H_Ph2 Bus1=AR48M__H.2.0 Phases=1 kV=0.23 kW=0.50 PF=0.95 Model=1 Vminpu=0.85 
New Load.Load_AR48M__F_Ph3 Bus1=AR48M__F.3.0 Phases=1 kV=0.23 kW=0.50 PF=0.95 Model=1 Vminpu=0.85 
New Load.Load_AR48M__C_Ph3 Bus1=AR48M__C.3.0 Phases=1 kV=0.23 kW=0.50 PF=0.95 Model=1 Vminpu=0.85 
New Load.Load_AR48U_D_D_B_Ph1 Bus1=AR48U_D_D_B.1.0 Phases=1 kV=0.23 kW=1.18 PF=0.95 Model=1 Vminpu=0.85 
New Load.Load_AR48U_V2_Ph2 Bus1=AR48U_V2.2.0 Phases=1 kV=0.23 kW=0.63 PF=0.95 Model=1 Vminpu=0.85 
New Load.Load_AR48U_W4_Ph3 Bus1=AR48U_W4.3.0 Phases=1 kV=0.23 kW=0.50 PF=0.95 Model=1 Vminpu=0.85 
New Load.Load_AR48U_W5_Ph1 Bus1=AR48U_W5.1.0 Phases=1 kV=0.23 kW=0.50 PF=0.95 Model=1 Vminpu=0.85 
New Load.Load_AR48U_W6_Ph2 Bus1=AR48U_W6.2.0 Phases=1 kV=0.23 kW=0.50 PF=0.95 Model=1 Vminpu=0.85 
New Load.Load_AR48U_V_Ph3 Bus1=AR48U_V.3.0 Phases=1 kV=0.23 kW=0.73 PF=0.95 Model=1 Vminpu=0.85 
New Load.Load_AR48U_W_Ph1 Bus1=AR48U_W.1.0 Phases=1 kV=0.23 kW=0.52 PF=0.95 Model=1 Vminpu=0.85 
New Load.Load_AR48U_P_F_Ph2 Bus1=AR48U_P_F.2.0 Phases=1 kV=0.23 kW=0.50 PF=0.95 Model=1 Vminpu=0.85 
New Load.Load_AR48U_V1_Ph3 Bus1=AR48U_V1.3.0 Phases=1 kV=0.23 kW=0.50 PF=0.95 Model=1 Vminpu=0.85 
New Load.Load_AR48U_V3_Ph1 Bus1=AR48U_V3.1.0 Phases=1 kV=0.23 kW=0.50 PF=0.95 Model=1 Vminpu=0.85 
New Load.Load_AR48U_W2_Ph3 Bus1=AR48U_W2.3.0 Phases=1 kV=0.23 kW=0.50 PF=0.95 Model=1 Vminpu=0.85 
New Load.Load_AR48U_W3_Ph1 Bus1=AR48U_W3.1.0 Phases=1 kV=0.23 kW=0.50 PF=0.95 Model=1 Vminpu=0.85 
New Load.Load_AR48U_W3A_Ph2 Bus1=AR48U_W3A.2.0 Phases=1 kV=0.23 kW=0.50 PF=0.95 Model=1 Vminpu=0.85 
New Load.Load_AR48U_N3_Ph3 Bus1=AR48U_N3.3.0 Phases=1 kV=0.23 kW=0.74 PF=0.95 Model=1 Vminpu=0.85 
New Load.Load_AR48U_L_1_Ph1 Bus1=AR48U_L_1.1.0 Phases=1 kV=0.23 kW=0.50 PF=0.95 Model=1 Vminpu=0.85 
New Load.Load_AR48U_L_Ph2 Bus1=AR48U_L.2.0 Phases=1 kV=0.23 kW=1.04 PF=0.95 Model=1 Vminpu=0.85 
New Load.Load_AR48U_P_B_1B_Ph1 Bus1=AR48U_P_B_1B.1.0 Phases=1 kV=0.23 kW=0.50 PF=0.95 Model=1 Vminpu=0.85 