scratch/LECO_BZ0109_OpenDSS/LECO_BZ0109_VLN_Node.txt

LINE-GROUND and LINE-LINE VOLTAGES BY BUS & NODE

Bus  Node    VLN (kV)   Angle      pu     Base kV    Node-Node   VLL (kV)  Angle      pu

SOURCEBUS .. 1            0 /_    0.0         0    11.000        1-2          0 /_    0.0         0
   -         2            0 /_    0.0         0    11.000        2-3          0 /_    0.0         0
   -         3            0 /_    0.0         0    11.000        3-1          0 /_    0.0         0
TX_LV_BUS .. 1            0 /_    0.0         0    11.000        1-2          0 /_    0.0         0
   -         2            0 /_    0.0         0    11.000        2-3          0 /_    0.0         0
   -         3            0 /_    0.0         0    11.000        3-1          0 /_    0.0         0
AR48N ...... 1            0 /_    0.0         0    11.000        1-2          0 /_    0.0         0
   -         2            0 /_    0.0         0    11.000        2-3          0 /_    0.0         0
   -         3            0 /_    0.0         0    11.000        3-1          0 /_    0.0         0
AR48U_P_L .. 1            0 /_    0.0         0    11.000        1-2          0 /_    0.0         0
   -         2            0 /_    0.0         0    11.000        2-3          0 /_    0.0         0
   -         3            0 /_    0.0         0    11.000        3-1          0 /_    0.0         0
AR48U_P_G .. 1            0 /_    0.0         0    11.000        1-2          0 /_    0.0         0
   -         2            0 /_    0.0         0    11.000        2-3          0 /_    0.0         0
   -         3            0 /_    0.0         0    11.000        3-1          0 /_    0.0         0
AR48U_P_G3 . 1            0 /_    0.0         0    11.000        1-2          0 /_    0.0         0
   -         2            0 /_    0.0         0    11.000        2-3          0 /_    0.0         0
   -         3            0 /_    0.0         0    11.000        3-1          0 /_    0.0         0
AR48U_P_G__4 1            0 /_    0.0         0    11.000        1-2          0 /_    0.0         0
   -         2            0 /_    0.0         0    11.000        2-3          0 /_    0.0         0
   -         3            0 /_    0.0         0    11.000        3-1          0 /_    0.0         0
AR48N4 ..... 1            0 /_    0.0         0    11.000        1-2          0 /_    0.0         0
   -         2            0 /_    0.0         0    11.000        2-3          0 /_    0.0         0
   -         3            0 /_    0.0         0    11.000        3-1          0 /_    0.0         0
AR48M__B ... 1            0 /_    0.0         0    11.000        1-2          0 /_    0.0         0
   -         2            0 /_    0.0         0    11.000        2-3          0 /_    0.0         0
   -         3            0 /_    0.0         0    11.000        3-1          0 /_    0.0         0
AR48T ...... 1            0 /_    0.0         0    11.000        1-2          0 /_    0.0         0
   -         2            0 /_    0.0         0    11.000        2-3          0 /_    0.0         0
   -         3            0 /_    0.0         0    11.000        3-1          0 /_    0.0         0
AR48U_F2 ... 1            0 /_    0.0         0    11.000        1-2          0 /_    0.0         0
   -         2            0 /_    0.0         0    11.000        2-3          0 /_    0.0         0
   -         3            0 /_    0.0         0    11.000        3-1          0 /_    0.0         0
AR48U_F .... 1            0 /_    0.0         0    11.000        1-2          0 /_    0.0         0
   -         2            0 /_    0.0         0    11.000        2-3          0 /_    0.0         0
   -         3            0 /_    0.0         0    11.000        3-1          0 /_    0.0         0
AR48U_G .... 1            0 /_    0.0         0    11.000        1-2          0 /_    0.0         0
   -         2            0 /_    0.0         0    11.000        2-3          0 /_    0.0         0
   -         3            0 /_    0.0         0    11.000        3-1          0 /_    0.0         0
AR48U_D .... 1            0 /_    0.0         0    11.000        1-2          0 /_    0.0         0
   -         2            0 /_    0.0         0    11.000        2-3          0 /_    0.0         0
   -         3            0 /_    0.0         0    11.000        3-1          0 /_    0.0         0
AR48U_B .... 1            0 /_    0.0         0    11.000        1-2          0 /_    0.0         0
   -         2            0 /_    0.0         0    11.000        2-3          0 /_    0.0         0
   -         3            0 /_    0.0         0    11.000        3-1          0 /_    0.0         0
AR48Q4_2 ... 1            0 /_    0.0         0    11.000        1-2          0 /_    0.0         0
   -         2            0 /_    0.0         0    11.000        2-3          0 /_    0.0         0
   -         3            0 /_    0.0         0    11.000        3-1          0 /_    0.0         0
AR48Q4 ..... 1            0 /_    0.0         0    11.000        1-2          0 /_    0.0         0
   -         2            0 /_    0.0         0    11.000        2-3          0 /_    0.0         0
   -         3            0 /_    0.0         0    11.000        3-1          0 /_    0.0         0
AR48U_G_C .. 1            0 /_    0.0         0    11.000        1-2          0 /_    0.0         0
   -         2            0 /_    0.0         0    11.000        2-3          0 /_    0.0         0
   -         3            0 /_    0.0         0    11.000        3-1          0 /_    0.0         0
AR48Y ...... 1            0 /_    0.0         0    11.000        1-2          0 /_    0.0         0
   -         2            0 /_    0.0         0    11.000        2-3          0 /_    0.0         0
   -         3            0 /_    0.0         0    11.000        3-1          0 /_    0.0         0
AR48W ...... 1            0 /_    0.0         0    11.000        1-2          0 /_    0.0         0
   -         2            0 /_    0.0         0    11.000        2-3          0 /_    0.0         0
   -         3            0 /_    0.0         0    11.000        3-1          0 /_    0.0         0
AR48U_D_D .. 1            0 /_    0.0         0    11.000        1-2          0 /_    0.0         0
   -         2            0 /_    0.0         0    11.000        2-3          0 /_    0.0         0
   -         3            0 /_    0.0         0    11.000        3-1          0 /_    0.0         0
AR48U ...... 1            0 /_    0.0         0    11.000        1-2          0 /_    0.0         0
   -         2            0 /_    0.0         0    11.000        2-3          0 /_    0.0         0
   -         3            0 /_    0.0         0    11.000        3-1          0 /_    0.0         0
AR48U_B_B .. 1            0 /_    0.0         0    11.000        1-2          0 /_    0.0         0
   -         2            0 /_    0.0         0    11.000        2-3          0 /_    0.0         0
   -         3            0 /_    0.0         0    11.000        3-1          0 /_    0.0         0
AR48W_C .... 1            0 /_    0.0         0    11.000        1-2          0 /_    0.0         0
   -         2            0 /_    0.0         0    11.000        2-3          0 /_    0.0         0
   -         3            0 /_    0.0         0    11.000        3-1          0 /_    0.0         0
AR48Q7 ..... 1            0 /_    0.0         0    11.000        1-2          0 /_    0.0         0
   -         2            0 /_    0.0         0    11.000        2-3          0 /_    0.0         0
   -         3            0 /_    0.0         0    11.000        3-1          0 /_    0.0         0
AR48U_P_E .. 1            0 /_    0.0         0    11.000        1-2          0 /_    0.0         0
   -         2            0 /_    0.0         0    11.000        2-3          0 /_    0.0         0
   -         3            0 /_    0.0         0    11.000        3-1          0 /_    0.0         0
AR48U_P_B .. 1            0 /_    0.0         0    11.000        1-2          0 /_    0.0         0
   -         2            0 /_    0.0         0    11.000        2-3          0 /_    0.0         0
   -         3            0 /_    0.0         0    11.000        3-1          0 /_    0.0         0
AR48U_P_E_C  1            0 /_    0.0         0    11.000        1-2          0 /_    0.0         0
   -         2            0 /_    0.0         0    11.000        2-3          0 /_    0.0         0
   -         3            0 /_    0.0         0    11.000        3-1          0 /_    0.0         0
AR48U_R1 ... 1            0 /_    0.0         0    11.000        1-2          0 /_    0.0         0
   -         2            0 /_    0.0         0    11.000        2-3          0 /_    0.0         0
   -         3            0 /_    0.0         0    11.000        3-1          0 /_    0.0         0
AR48U_R .... 1            0 /_    0.0         0    11.000        1-2          0 /_    0.0         0
   -         2            0 /_    0.0         0    11.000        2-3          0 /_    0.0         0
   -         3            0 /_    0.0         0    11.000        3-1          0 /_    0.0         0
AR48U_V .... 1            0 /_    0.0         0    11.000        1-2          0 /_    0.0         0
   -         2            0 /_    0.0         0    11.000        2-3          0 /_    0.0         0
   -         3            0 /_    0.0         0    11.000        3-1          0 /_    0.0         0
AR48U_Q .... 1            0 /_    0.0         0    11.000        1-2          0 /_    0.0         0
   -         2            0 /_    0.0         0    11.000        2-3          0 /_    0.0         0
   -         3            0 /_    0.0         0    11.000        3-1          0 /_    0.0         0
AR48U_P .... 1            0 /_    0.0         0    11.000        1-2          0 /_    0.0         0
   -         2            0 /_    0.0         0    11.000        2-3          0 /_    0.0         0
   -         3            0 /_    0.0         0    11.000        3-1          0 /_    0.0         0
AR48V ...... 1            0 /_    0.0         0    11.000        1-2          0 /_    0.0         0
   -         2            0 /_    0.0         0    11.000        2-3          0 /_    0.0         0
   -         3            0 /_    0.0         0    11.000        3-1          0 /_    0.0         0
AR48U_N .... 1            0 /_    0.0         0    11.000        1-2          0 /_    0.0         0
   -         2            0 /_    0.0         0    11.000        2-3          0 /_    0.0         0
   -         3            0 /_    0.0         0    11.000        3-1          0 /_    0.0         0
AR48U_M .... 1            0 /_    0.0         0    11.000        1-2          0 /_    0.0         0
   -         2            0 /_    0.0         0    11.000        2-3          0 /_    0.0         0
   -         3            0 /_    0.0         0    11.000        3-1          0 /_    0.0         0
AR48U_M_C .. 1            0 /_    0.0         0    11.000        1-2          0 /_    0.0         0
   -         2            0 /_    0.0         0    11.000        2-3          0 /_    0.0         0
   -         3            0 /_    0.0         0    11.000        3-1          0 /_    0.0         0
AR48U_L .... 1            0 /_    0.0         0    11.000        1-2          0 /_    0.0         0
   -         2            0 /_    0.0         0    11.000        2-3          0 /_    0.0         0
   -         3            0 /_    0.0         0    11.000        3-1          0 /_    0.0         0
AR48Q ...... 1            0 /_    0.0         0    11.000        1-2          0 /_    0.0         0
   -         2            0 /_    0.0         0    11.000        2-3          0 /_    0.0         0
   -         3            0 /_    0.0         0    11.000        3-1          0 /_    0.0         0
AR48M__E3 .. 1            0 /_    0.0         0    11.000        1-2          0 /_    0.0         0
   -         2            0 /_    0.0         0    11.000        2-3          0 /_    0.0         0
   -         3            0 /_    0.0         0    11.000        3-1          0 /_    0.0         0
AR48M__B4 .. 1            0 /_    0.0         0    11.000        1-2          0 /_    0.0         0
   -         2            0 /_    0.0         0    11.000        2-3          0 /_    0.0         0
   -         3            0 /_    0.0         0    11.000        3-1          0 /_    0.0         0
AR48M__E6 .. 1            0 /_    0.0         0    11.000        1-2          0 /_    0.0         0
   -         2            0 /_    0.0         0    11.000        2-3          0 /_    0.0         0
   -         3            0 /_    0.0         0    11.000        3-1          0 /_    0.0         0
AR48M__H ... 1            0 /_    0.0         0    11.000        1-2          0 /_    0.0         0
   -         2            0 /_    0.0         0    11.000        2-3          0 /_    0.0         0
   -         3            0 /_    0.0         0    11.000        3-1          0 /_    0.0         0
AR48M__E ... 1            0 /_    0.0         0    11.000        1-2          0 /_    0.0         0
   -         2            0 /_    0.0         0    11.000        2-3          0 /_    0.0         0
   -         3            0 /_    0.0         0    11.000        3-1          0 /_    0.0         0
AR48M__E3A . 1            0 /_    0.0         0    11.000        1-2          0 /_    0.0         0
   -         2            0 /_    0.0         0    11.000        2-3          0 /_    0.0         0
   -         3            0 /_    0.0         0    11.000        3-1          0 /_    0.0         0
AR48U_D_D_B  1            0 /_    0.0         0    11.000        1-2          0 /_    0.0         0
   -         2            0 /_    0.0         0    11.000        2-3          0 /_    0.0         0
   -         3            0 /_    0.0         0    11.000        3-1          0 /_    0.0         0
AR48U_P_B_1B 1            0 /_    0.0         0    11.000        1-2          0 /_    0.0         0
   -         2            0 /_    0.0         0    11.000        2-3          0 /_    0.0         0
   -         3            0 /_    0.0         0    11.000        3-1          0 /_    0.0         0
AR48U_P_B_1  1            0 /_    0.0         0    11.000        1-2          0 /_    0.0         0
   -         2            0 /_    0.0         0    11.000        2-3          0 /_    0.0         0
   -         3            0 /_    0.0         0    11.000        3-1          0 /_    0.0         0
AR48U_W .... 1            0 /_    0.0         0    11.000        1-2          0 /_    0.0         0
   -         2            0 /_    0.0         0    11.000        2-3          0 /_    0.0         0
   -         3            0 /_    0.0         0    11.000        3-1          0 /_    0.0         0
AR48U_Y .... 1            0 /_    0.0         0    11.000        1-2          0 /_    0.0         0
   -         2            0 /_    0.0         0    11.000        2-3          0 /_    0.0         0
   -         3            0 /_    0.0         0    11.000        3-1          0 /_    0.0         0
AR48U_V3 ... 1            0 /_    0.0         0    11.000        1-2          0 /_    0.0         0
   -         2            0 /_    0.0         0    11.000        2-3          0 /_    0.0         0
   -         3            0 /_    0.0         0    11.000        3-1          0 /_    0.0         0
AR48U_W3 ... 1            0 /_    0.0         0    11.000        1-2          0 /_    0.0         0
   -         2            0 /_    0.0         0    11.000        2-3          0 /_    0.0         0
   -         3            0 /_    0.0         0    11.000        3-1          0 /_    0.0         0
AR48U_W3A .. 1            0 /_    0.0         0    11.000        1-2          0 /_    0.0         0
   -         2            0 /_    0.0         0    11.000        2-3          0 /_    0.0         0
   -         3            0 /_    0.0         0    11.000        3-1          0 /_    0.0         0
AR48U_W6 ... 1            0 /_    0.0         0    11.000        1-2          0 /_    0.0         0
   -         2            0 /_    0.0         0    11.000        2-3          0 /_    0.0         0
   -         3            0 /_    0.0         0    11.000        3-1          0 /_    0.0         0
AR48U_P_B_A  1            0 /_    0.0         0    11.000        1-2          0 /_    0.0         0
   -         2            0 /_    0.0         0    11.000        2-3          0 /_    0.0         0
   -         3            0 /_    0.0         0    11.000        3-1          0 /_    0.0         0
AR48U_Q2 ... 1            0 /_    0.0         0    11.000        1-2          0 /_    0.0         0
   -         2            0 /_    0.0         0    11.000        2-3          0 /_    0.0         0
   -         3            0 /_    0.0         0    11.000        3-1          0 /_    0.0         0
AR48U_N3 ... 1            0 /_    0.0         0    11.000        1-2          0 /_    0.0         0
   -         2            0 /_    0.0         0    11.000        2-3          0 /_    0.0         0
   -         3            0 /_    0.0         0    11.000        3-1          0 /_    0.0         0
AR48U_L_C .. 1            0 /_    0.0         0    11.000        1-2          0 /_    0.0         0
   -         2            0 /_    0.0         0    11.000        2-3          0 /_    0.0         0
   -         3            0 /_    0.0         0    11.000        3-1          0 /_    0.0         0
AR48R ...... 1            0 /_    0.0         0    11.000
AR48P ...... 2            0 /_    0.0         0    11.000
AR48X ...... 1            0 /_    0.0         0    11.000
AR48S ...... 3            0 /_    0.0         0    11.000
AR48M ...... 3            0 /_    0.0         0    11.000
AR48U_X .... 1            0 /_    0.0         0    11.000
AR48U_P_H .. 1            0 /_    0.0         0    11.000
AR48U_P_J .. 2            0 /_    0.0         0    11.000
AR48U_P_K .. 3            0 /_    0.0         0    11.000
AR48U_P_G1 . 2            0 /_    0.0         0    11.000
AR48U_P_G__2 3            0 /_    0.0         0    11.000
AR48U_P_G__3 1            0 /_    0.0         0    11.000
AR48N_1 .... 3            0 /_    0.0         0    11.000
AR48M__B3 .. 1            0 /_    0.0         0    11.000
AR48M__B2 .. 2            0 /_    0.0         0    11.000
AR48N1 ..... 1            0 /_    0.0         0    11.000
AR48U_J .... 2            0 /_    0.0         0    11.000
AR48Q5 ..... 3            0 /_    0.0         0    11.000
AR48U_A .... 1            0 /_    0.0         0    11.000
AR48Q6 ..... 2            0 /_    0.0         0    11.000
AR48U_D_B .. 3            0 /_    0.0         0    11.000
AR48Q1 ..... 1            0 /_    0.0         0    11.000
AR48N2 ..... 2            0 /_    0.0         0    11.000
AR48M__E5 .. 3            0 /_    0.0         0    11.000
AR48N3 ..... 2            0 /_    0.0         0    11.000
AR48M__E4 .. 2            0 /_    0.0         0    11.000
AR48U_G_B .. 1            0 /_    0.0         0    11.000
AR48Q2 ..... 3            0 /_    0.0         0    11.000
AR48U_D_C .. 1            0 /_    0.0         0    11.000
AR48U_J_1 .. 2            0 /_    0.0         0    11.000
AR48U_D_A .. 1            0 /_    0.0         0    11.000
AR48U_E .... 1            0 /_    0.0         0    11.000
AR48U_C .... 1            0 /_    0.0         0    11.000
AR48U_G_A .. 2            0 /_    0.0         0    11.000
AR48U_B_A .. 3            0 /_    0.0         0    11.000
AR48U_H .... 1            0 /_    0.0         0    11.000
AR48Q3 ..... 2            0 /_    0.0         0    11.000
AR48S_1 .... 1            0 /_    0.0         0    11.000
AR48U_P_D .. 2            0 /_    0.0         0    11.000
AR48U_P_E_A  2            0 /_    0.0         0    11.000
AR48U_P_E_B  3            0 /_    0.0         0    11.000
AR48U_N2 ... 3            0 /_    0.0         0    11.000
AR48U_S .... 3            0 /_    0.0         0    11.000
AR48U_T .... 1            0 /_    0.0         0    11.000
AR48U_U .... 2            0 /_    0.0         0    11.000
AR48U_P_A .. 3            0 /_    0.0         0    11.000
AR48U_P_C .. 2            0 /_    0.0         0    11.000
AR48U_L_A .. 1            0 /_    0.0         0    11.000
AR48U_L_B .. 2            0 /_    0.0         0    11.000
AR48U_L_2 .. 3            0 /_    0.0         0    11.000
AR48U_M_B .. 1            0 /_    0.0         0    11.000
AR48U_N1 ... 1            0 /_    0.0         0    11.000
AR48U_M_A .. 2            0 /_    0.0         0    11.000
AR48U_K .... 3            0 /_    0.0         0    11.000
AR48M__A ... 3            0 /_    0.0         0    11.000
AR48M__B1 .. 1            0 /_    0.0         0    11.000
AR48M__E2 .. 1            0 /_    0.0         0    11.000
AR48M__F ... 3            0 /_    0.0         0    11.000
AR48M__C ... 3            0 /_    0.0         0    11.000
AR48U_V2 ... 2            0 /_    0.0         0    11.000
AR48U_W4 ... 3            0 /_    0.0         0    11.000
AR48U_W5 ... 1            0 /_    0.0         0    11.000
AR48U_P_F .. 2            0 /_    0.0         0    11.000
AR48U_V1 ... 3            0 /_    0.0         0    11.000
AR48U_W2 ... 3            0 /_    0.0         0    11.000
AR48U_L_1 .. 1            0 /_    0.0         0    11.000
